/*--------------------------------*- C++ -*----------------------------------*\
  =========                 |
  \\      /  F ield         | OpenFOAM: The Open Source CFD Toolbox
   \\    /   O peration     | Website:  https://openfoam.org
    \\  /    A nd           | Version:  8
     \\/     M anipulation  |
\*---------------------------------------------------------------------------*/
FoamFile
{
    version     2.0;
    format      ascii;
    class       polyBoundaryMesh;
    location    "constant/polyMesh";
    object      boundary;
}
// * * * * * * * * * * * * * * * * * * * * * * * * * * * * * * * * * * * * * //

6
(
    wall
    {
        type            patch;
        physicalType    patch;
        nFaces          16860;
        startFace       266490;
    }
    surface
    {
        type            patch;
        physicalType    patch;
        nFaces          3600;
        startFace       283350;
    }
    main_outlet
    {
        type            patch;
        physicalType    patch;
        nFaces          48;
        startFace       286950;
    }
    branch_outlet
    {
        type            patch;
        physicalType    patch;
        nFaces          48;
        startFace       286998;
    }
    branch_inlet
    {
        type            patch;
        physicalType    patch;
        nFaces          72;
        startFace       287046;
    }
    main_inlet
    {
        type            patch;
        physicalType    patch;
        nFaces          24;
        startFace       287118;
    }
)

// ************************************************************************* //
